MODEL 1
REMARK VINA RESULT:      -4.7      0.000      0.000
REMARK  3 active torsions:
REMARK  status: ('A' for Active; 'I' for Inactive)
REMARK    1  A    between atoms: C_3  and  O_11 
REMARK    2  A    between atoms: C_4  and  N_8 
REMARK    3  A    between atoms: O_11  and  C_12 
ROOT
ATOM      1  C   LIG     1     426.507 254.327 311.749  0.00  0.00     0.002 A 
ATOM      2  C   LIG     1     426.160 253.005 312.031  0.00  0.00     0.026 A 
ATOM      3  C   LIG     1     424.827 252.671 312.270  0.00  0.00     0.124 A 
ATOM      4  C   LIG     1     423.842 253.657 312.226  0.00  0.00     0.145 A 
ATOM      5  C   LIG     1     424.190 254.978 311.944  0.00  0.00     0.002 A 
ATOM      6  C   LIG     1     423.160 256.061 311.888  0.00  0.00     0.033 C 
ATOM      7  C   LIG     1     425.523 255.313 311.705  0.00  0.00    -0.003 A 
ENDROOT
BRANCH   3   8
ATOM      8  O   LIG     1     424.515 251.373 312.544  0.00  0.00    -0.275 OA
BRANCH   8   9
ATOM      9  C   LIG     1     424.876 250.959 313.835  0.00  0.00     0.277 C 
ATOM     10  O   LIG     1     424.683 251.585 314.870  0.00  0.00    -0.264 OA
ATOM     11  C   LIG     1     425.549 249.619 313.774  0.00  0.00     0.107 C 
ENDBRANCH   8   9
ENDBRANCH   3   8
BRANCH   4  12
ATOM     12  N   LIG     1     422.481 253.312 312.471  0.00  0.00    -0.112 N 
ATOM     13  O   LIG     1     422.082 253.239 313.656  0.00  0.00    -0.532 OA
ATOM     14  O   LIG     1     421.730 253.093 311.494  0.00  0.00    -0.532 OA
ENDBRANCH   4  12
TORSDOF 3
ENDMDL
MODEL 2
REMARK VINA RESULT:      -4.1     12.428     13.905
REMARK  3 active torsions:
REMARK  status: ('A' for Active; 'I' for Inactive)
REMARK    1  A    between atoms: C_3  and  O_11 
REMARK    2  A    between atoms: C_4  and  N_8 
REMARK    3  A    between atoms: O_11  and  C_12 
ROOT
ATOM      1  C   LIG     1     435.004 258.614 313.215  0.00  0.00     0.002 A 
ATOM      2  C   LIG     1     434.932 257.801 314.346  0.00  0.00     0.026 A 
ATOM      3  C   LIG     1     436.102 257.391 314.985  0.00  0.00     0.124 A 
ATOM      4  C   LIG     1     437.343 257.794 314.495  0.00  0.00     0.145 A 
ATOM      5  C   LIG     1     437.415 258.608 313.363  0.00  0.00     0.002 A 
ATOM      6  C   LIG     1     438.729 259.060 312.810  0.00  0.00     0.033 C 
ATOM      7  C   LIG     1     436.245 259.018 312.724  0.00  0.00    -0.003 A 
ENDROOT
BRANCH   3   8
ATOM      8  O   LIG     1     436.003 256.596 316.088  0.00  0.00    -0.275 OA
BRANCH   8   9
ATOM      9  C   LIG     1     435.292 257.176 317.149  0.00  0.00     0.277 C 
ATOM     10  O   LIG     1     434.095 257.042 317.369  0.00  0.00    -0.264 OA
ATOM     11  C   LIG     1     436.216 258.005 317.993  0.00  0.00     0.107 C 
ENDBRANCH   8   9
ENDBRANCH   3   8
BRANCH   4  12
ATOM     12  N   LIG     1     438.536 257.373 315.150  0.00  0.00    -0.112 N 
ATOM     13  O   LIG     1     438.974 258.058 316.104  0.00  0.00    -0.532 OA
ATOM     14  O   LIG     1     439.107 256.333 314.753  0.00  0.00    -0.532 OA
ENDBRANCH   4  12
TORSDOF 3
ENDMDL
MODEL 3
REMARK VINA RESULT:      -4.0      2.493      3.974
REMARK  3 active torsions:
REMARK  status: ('A' for Active; 'I' for Inactive)
REMARK    1  A    between atoms: C_3  and  O_11 
REMARK    2  A    between atoms: C_4  and  N_8 
REMARK    3  A    between atoms: O_11  and  C_12 
ROOT
ATOM      1  C   LIG     1     425.577 252.051 312.518  0.00  0.00     0.002 A 
ATOM      2  C   LIG     1     425.965 253.143 311.741  0.00  0.00     0.026 A 
ATOM      3  C   LIG     1     425.082 254.204 311.540  0.00  0.00     0.124 A 
ATOM      4  C   LIG     1     423.812 254.174 312.116  0.00  0.00     0.145 A 
ATOM      5  C   LIG     1     423.425 253.082 312.893  0.00  0.00     0.002 A 
ATOM      6  C   LIG     1     422.072 253.017 313.527  0.00  0.00     0.033 C 
ATOM      7  C   LIG     1     424.307 252.021 313.094  0.00  0.00    -0.003 A 
ENDROOT
BRANCH   3   8
ATOM      8  O   LIG     1     425.486 255.258 310.776  0.00  0.00    -0.275 OA
BRANCH   8   9
ATOM      9  C   LIG     1     425.537 254.980 309.401  0.00  0.00     0.277 C 
ATOM     10  O   LIG     1     424.586 254.673 308.695  0.00  0.00    -0.264 OA
ATOM     11  C   LIG     1     426.948 255.110 308.906  0.00  0.00     0.107 C 
ENDBRANCH   8   9
ENDBRANCH   3   8
BRANCH   4  12
ATOM     12  N   LIG     1     422.913 255.260 311.908  0.00  0.00    -0.112 N 
ATOM     13  O   LIG     1     422.919 256.212 312.723  0.00  0.00    -0.532 OA
ATOM     14  O   LIG     1     422.148 255.228 310.919  0.00  0.00    -0.532 OA
ENDBRANCH   4  12
TORSDOF 3
ENDMDL
MODEL 4
REMARK VINA RESULT:      -4.0      4.980      6.172
REMARK  3 active torsions:
REMARK  status: ('A' for Active; 'I' for Inactive)
REMARK    1  A    between atoms: C_3  and  O_11 
REMARK    2  A    between atoms: C_4  and  N_8 
REMARK    3  A    between atoms: O_11  and  C_12 
ROOT
ATOM      1  C   LIG     1     427.604 254.102 306.699  0.00  0.00     0.002 A 
ATOM      2  C   LIG     1     426.326 254.427 307.151  0.00  0.00     0.026 A 
ATOM      3  C   LIG     1     426.156 255.448 308.087  0.00  0.00     0.124 A 
ATOM      4  C   LIG     1     427.265 256.142 308.571  0.00  0.00     0.145 A 
ATOM      5  C   LIG     1     428.544 255.816 308.118  0.00  0.00     0.002 A 
ATOM      6  C   LIG     1     429.755 256.540 308.614  0.00  0.00     0.033 C 
ATOM      7  C   LIG     1     428.713 254.796 307.182  0.00  0.00    -0.003 A 
ENDROOT
BRANCH   3   8
ATOM      8  O   LIG     1     424.896 255.746 308.513  0.00  0.00    -0.275 OA
BRANCH   8   9
ATOM      9  C   LIG     1     424.363 254.813 309.416  0.00  0.00     0.277 C 
ATOM     10  O   LIG     1     424.936 254.354 310.395  0.00  0.00    -0.264 OA
ATOM     11  C   LIG     1     422.967 254.444 309.006  0.00  0.00     0.107 C 
ENDBRANCH   8   9
ENDBRANCH   3   8
BRANCH   4  12
ATOM     12  N   LIG     1     427.088 257.184 309.527  0.00  0.00    -0.112 N 
ATOM     13  O   LIG     1     427.121 256.895 310.746  0.00  0.00    -0.532 OA
ATOM     14  O   LIG     1     426.906 258.353 309.119  0.00  0.00    -0.532 OA
ENDBRANCH   4  12
TORSDOF 3
ENDMDL
MODEL 5
REMARK VINA RESULT:      -4.0      3.638      5.210
REMARK  3 active torsions:
REMARK  status: ('A' for Active; 'I' for Inactive)
REMARK    1  A    between atoms: C_3  and  O_11 
REMARK    2  A    between atoms: C_4  and  N_8 
REMARK    3  A    between atoms: O_11  and  C_12 
ROOT
ATOM      1  C   LIG     1     423.963 255.482 308.697  0.00  0.00     0.002 A 
ATOM      2  C   LIG     1     425.341 255.689 308.627  0.00  0.00     0.026 A 
ATOM      3  C   LIG     1     426.178 255.141 309.599  0.00  0.00     0.124 A 
ATOM      4  C   LIG     1     425.638 254.385 310.639  0.00  0.00     0.145 A 
ATOM      5  C   LIG     1     424.260 254.178 310.708  0.00  0.00     0.002 A 
ATOM      6  C   LIG     1     423.646 253.372 311.808  0.00  0.00     0.033 C 
ATOM      7  C   LIG     1     423.423 254.727 309.737  0.00  0.00    -0.003 A 
ENDROOT
BRANCH   3   8
ATOM      8  O   LIG     1     427.521 255.359 309.508  0.00  0.00    -0.275 OA
BRANCH   8   9
ATOM      9  C   LIG     1     428.132 254.714 308.422  0.00  0.00     0.277 C 
ATOM     10  O   LIG     1     428.011 253.531 308.129  0.00  0.00    -0.264 OA
ATOM     11  C   LIG     1     428.973 255.691 307.654  0.00  0.00     0.107 C 
ENDBRANCH   8   9
ENDBRANCH   3   8
BRANCH   4  12
ATOM     12  N   LIG     1     426.496 253.826 311.630  0.00  0.00    -0.112 N 
ATOM     13  O   LIG     1     426.862 254.548 312.586  0.00  0.00    -0.532 OA
ATOM     14  O   LIG     1     426.856 252.633 311.512  0.00  0.00    -0.532 OA
ENDBRANCH   4  12
TORSDOF 3
ENDMDL
MODEL 6
REMARK VINA RESULT:      -4.0     12.320     13.896
REMARK  3 active torsions:
REMARK  status: ('A' for Active; 'I' for Inactive)
REMARK    1  A    between atoms: C_3  and  O_11 
REMARK    2  A    between atoms: C_4  and  N_8 
REMARK    3  A    between atoms: O_11  and  C_12 
ROOT
ATOM      1  C   LIG     1     438.463 258.839 312.986  0.00  0.00     0.002 A 
ATOM      2  C   LIG     1     437.071 258.922 312.993  0.00  0.00     0.026 A 
ATOM      3  C   LIG     1     436.366 258.710 314.178  0.00  0.00     0.124 A 
ATOM      4  C   LIG     1     437.052 258.416 315.355  0.00  0.00     0.145 A 
ATOM      5  C   LIG     1     438.445 258.334 315.348  0.00  0.00     0.002 A 
ATOM      6  C   LIG     1     439.214 258.022 316.592  0.00  0.00     0.033 C 
ATOM      7  C   LIG     1     439.150 258.545 314.163  0.00  0.00    -0.003 A 
ENDROOT
BRANCH   3   8
ATOM      8  O   LIG     1     435.005 258.796 314.157  0.00  0.00    -0.275 OA
BRANCH   8   9
ATOM      9  C   LIG     1     434.375 257.714 313.523  0.00  0.00     0.277 C 
ATOM     10  O   LIG     1     434.509 256.534 313.817  0.00  0.00    -0.264 OA
ATOM     11  C   LIG     1     433.498 258.212 312.411  0.00  0.00     0.107 C 
ENDBRANCH   8   9
ENDBRANCH   3   8
BRANCH   4  12
ATOM     12  N   LIG     1     436.329 258.201 316.564  0.00  0.00    -0.112 N 
ATOM     13  O   LIG     1     435.934 257.042 316.831  0.00  0.00    -0.532 OA
ATOM     14  O   LIG     1     436.111 259.175 317.318  0.00  0.00    -0.532 OA
ENDBRANCH   4  12
TORSDOF 3
ENDMDL
MODEL 7
REMARK VINA RESULT:      -4.0      2.403      3.558
REMARK  3 active torsions:
REMARK  status: ('A' for Active; 'I' for Inactive)
REMARK    1  A    between atoms: C_3  and  O_11 
REMARK    2  A    between atoms: C_4  and  N_8 
REMARK    3  A    between atoms: O_11  and  C_12 
ROOT
ATOM      1  C   LIG     1     423.102 256.865 312.421  0.00  0.00     0.002 A 
ATOM      2  C   LIG     1     423.028 255.531 312.019  0.00  0.00     0.026 A 
ATOM      3  C   LIG     1     424.197 254.819 311.750  0.00  0.00     0.124 A 
ATOM      4  C   LIG     1     425.439 255.440 311.883  0.00  0.00     0.145 A 
ATOM      5  C   LIG     1     425.511 256.774 312.286  0.00  0.00     0.002 A 
ATOM      6  C   LIG     1     426.825 257.472 312.440  0.00  0.00     0.033 C 
ATOM      7  C   LIG     1     424.342 257.486 312.554  0.00  0.00    -0.003 A 
ENDROOT
BRANCH   3   8
ATOM      8  O   LIG     1     424.098 253.517 311.358  0.00  0.00    -0.275 OA
BRANCH   8   9
ATOM      9  C   LIG     1     423.985 252.608 312.421  0.00  0.00     0.277 C 
ATOM     10  O   LIG     1     423.211 252.699 313.364  0.00  0.00    -0.264 OA
ATOM     11  C   LIG     1     424.966 251.487 312.241  0.00  0.00     0.107 C 
ENDBRANCH   8   9
ENDBRANCH   3   8
BRANCH   4  12
ATOM     12  N   LIG     1     426.631 254.710 311.607  0.00  0.00    -0.112 N 
ATOM     13  O   LIG     1     427.229 254.153 312.556  0.00  0.00    -0.532 OA
ATOM     14  O   LIG     1     427.040 254.648 310.426  0.00  0.00    -0.532 OA
ENDBRANCH   4  12
TORSDOF 3
ENDMDL
MODEL 8
REMARK VINA RESULT:      -4.0      1.612      4.063
REMARK  3 active torsions:
REMARK  status: ('A' for Active; 'I' for Inactive)
REMARK    1  A    between atoms: C_3  and  O_11 
REMARK    2  A    between atoms: C_4  and  N_8 
REMARK    3  A    between atoms: O_11  and  C_12 
ROOT
ATOM      1  C   LIG     1     426.767 254.341 311.291  0.00  0.00     0.002 A 
ATOM      2  C   LIG     1     425.763 255.285 311.072  0.00  0.00     0.026 A 
ATOM      3  C   LIG     1     424.443 254.990 311.413  0.00  0.00     0.124 A 
ATOM      4  C   LIG     1     424.126 253.753 311.973  0.00  0.00     0.145 A 
ATOM      5  C   LIG     1     425.130 252.809 312.192  0.00  0.00     0.002 A 
ATOM      6  C   LIG     1     424.827 251.473 312.792  0.00  0.00     0.033 C 
ATOM      7  C   LIG     1     426.450 253.104 311.851  0.00  0.00    -0.003 A 
ENDROOT
BRANCH   3   8
ATOM      8  O   LIG     1     423.481 255.930 311.188  0.00  0.00    -0.275 OA
BRANCH   8   9
ATOM      9  C   LIG     1     423.506 257.001 312.094  0.00  0.00     0.277 C 
ATOM     10  O   LIG     1     423.289 256.928 313.296  0.00  0.00    -0.264 OA
ATOM     11  C   LIG     1     423.838 258.275 311.373  0.00  0.00     0.107 C 
ENDBRANCH   8   9
ENDBRANCH   3   8
BRANCH   4  12
ATOM     12  N   LIG     1     422.777 253.456 312.320  0.00  0.00    -0.112 N 
ATOM     13  O   LIG     1     422.417 253.591 313.512  0.00  0.00    -0.532 OA
ATOM     14  O   LIG     1     421.995 253.070 311.422  0.00  0.00    -0.532 OA
ENDBRANCH   4  12
TORSDOF 3
ENDMDL
MODEL 9
REMARK VINA RESULT:      -4.0      4.735      5.571
REMARK  3 active torsions:
REMARK  status: ('A' for Active; 'I' for Inactive)
REMARK    1  A    between atoms: C_3  and  O_11 
REMARK    2  A    between atoms: C_4  and  N_8 
REMARK    3  A    between atoms: O_11  and  C_12 
ROOT
ATOM      1  C   LIG     1     427.847 253.799 307.328  0.00  0.00     0.002 A 
ATOM      2  C   LIG     1     427.776 254.115 308.684  0.00  0.00     0.026 A 
ATOM      3  C   LIG     1     427.065 255.241 309.101  0.00  0.00     0.124 A 
ATOM      4  C   LIG     1     426.426 256.050 308.163  0.00  0.00     0.145 A 
ATOM      5  C   LIG     1     426.497 255.733 306.806  0.00  0.00     0.002 A 
ATOM      6  C   LIG     1     425.823 256.577 305.772  0.00  0.00     0.033 C 
ATOM      7  C   LIG     1     427.208 254.608 306.389  0.00  0.00    -0.003 A 
ENDROOT
BRANCH   3   8
ATOM      8  O   LIG     1     427.013 255.528 310.433  0.00  0.00    -0.275 OA
BRANCH   8   9
ATOM      9  C   LIG     1     426.181 254.670 311.170  0.00  0.00     0.277 C 
ATOM     10  O   LIG     1     425.029 254.369 310.885  0.00  0.00    -0.264 OA
ATOM     11  C   LIG     1     426.910 254.165 312.380  0.00  0.00     0.107 C 
ENDBRANCH   8   9
ENDBRANCH   3   8
BRANCH   4  12
ATOM     12  N   LIG     1     425.702 257.199 308.593  0.00  0.00    -0.112 N 
ATOM     13  O   LIG     1     424.485 257.078 308.864  0.00  0.00    -0.532 OA
ATOM     14  O   LIG     1     426.305 258.292 308.686  0.00  0.00    -0.532 OA
ENDBRANCH   4  12
TORSDOF 3
ENDMDL
MODEL 10
REMARK VINA RESULT:      -3.9     10.238     11.438
REMARK  3 active torsions:
REMARK  status: ('A' for Active; 'I' for Inactive)
REMARK    1  A    between atoms: C_3  and  O_11 
REMARK    2  A    between atoms: C_4  and  N_8 
REMARK    3  A    between atoms: O_11  and  C_12 
ROOT
ATOM      1  C   LIG     1     433.602 257.561 317.613  0.00  0.00     0.002 A 
ATOM      2  C   LIG     1     434.737 257.681 316.810  0.00  0.00     0.026 A 
ATOM      3  C   LIG     1     434.605 257.762 315.424  0.00  0.00     0.124 A 
ATOM      4  C   LIG     1     433.339 257.723 314.840  0.00  0.00     0.145 A 
ATOM      5  C   LIG     1     432.204 257.603 315.643  0.00  0.00     0.002 A 
ATOM      6  C   LIG     1     430.832 257.560 315.052  0.00  0.00     0.033 C 
ATOM      7  C   LIG     1     432.337 257.522 317.030  0.00  0.00    -0.003 A 
ENDROOT
BRANCH   3   8
ATOM      8  O   LIG     1     435.730 257.878 314.663  0.00  0.00    -0.275 OA
BRANCH   8   9
ATOM      9  C   LIG     1     436.520 256.718 314.631  0.00  0.00     0.277 C 
ATOM     10  O   LIG     1     436.104 255.568 314.581  0.00  0.00    -0.264 OA
ATOM     11  C   LIG     1     437.974 257.088 314.672  0.00  0.00     0.107 C 
ENDBRANCH   8   9
ENDBRANCH   3   8
BRANCH   4  12
ATOM     12  N   LIG     1     433.208 257.806 313.424  0.00  0.00    -0.112 N 
ATOM     13  O   LIG     1     433.247 256.749 312.752  0.00  0.00    -0.532 OA
ATOM     14  O   LIG     1     433.058 258.931 312.897  0.00  0.00    -0.532 OA
ENDBRANCH   4  12
TORSDOF 3
ENDMDL
